/*--------------------------------*- C++ -*----------------------------------*\
| =========                 |                                                 |
| \\      /  F ield         | OpenFOAM: The Open Source CFD Toolbox           |
|  \\    /   O peration     | Version:  2.3.x                                 |
|   \\  /    A nd           | Web:      www.OpenFOAM.org                      |
|    \\/     M anipulation  |                                                 |
\*---------------------------------------------------------------------------*/
FoamFile
{
    version     2.0;
    format      ascii;
    class       dictionary;
    location    "system";
    object      controlDict;
}
// * * * * * * * * * * * * * * * * * * * * * * * * * * * * * * * * * * * * * //

application     pimpleDyMFoam;

startFrom       latestTime;

startTime       0;

stopAt          endTime;

endTime         10.0;

deltaT          0.002;

writeControl    runTime;

writeInterval   0.02;

purgeWrite      0;

writeFormat     binary;

writePrecision  10;

writeCompression uncompressed;

timeFormat      general;

timePrecision   6;

runTimeModifiable true;

adjustTimeStep  no;

maxCo           30.0;

libs
(
    "libOpenFOAM.so"
    "libforces.so"
    "libincompressibleTurbulenceModel.so"
    "libincompressibleRASModels.so"
);

functions
{
    forces
    {
        type                forces;
        functionObjectLibs  ("libforces.so");
        outputControl       timeStep;
        outputInterval      1;
        patches             (shaft blades struts);
        pName               p;
        UName               U;
        rhoName             rhoInf;
        log                 true;
        rhoInf              1000.0;
        CofR                (0 0 0);
    }
}

// ************************************************************************* //
