/*--------------------------------*- C++ -*----------------------------------*\
| =========                 |                                                 |
| \\      /  F ield         | OpenFOAM: The Open Source CFD Toolbox           |
|  \\    /   O peration     | Version:  2.2.x                                 |
|   \\  /    A nd           | Web:      www.OpenFOAM.org                      |
|    \\/     M anipulation  |                                                 |
\*---------------------------------------------------------------------------*/
FoamFile
{
    version     2.0;
    format      ascii;
    class       dictionary;
    object      dynamicMeshDict;
}


dynamicFvMesh   solidBodyMotionFvMesh;

motionSolverLibs ( "libfvMotionSolvers.so" );

solidBodyMotionFvMeshCoeffs
{
    cellZone        AMIsurface;

    solidBodyMotionFunction  rotatingMotion;
    rotatingMotionCoeffs
    {
	origin		(0 0 0);
	axis		(0 0 1);
        omega		table
	(
            (0.0 3.60626845303)
            (0.015037593985 3.55186613811)
            (0.0300751879699 3.50473807964)
            (0.0451127819549 3.46626587698)
            (0.0601503759398 3.43757737566)
            (0.0751879699248 3.41951360365)
            (0.0902255639098 3.41260411587)
            (0.105263157895 3.41705146988)
            (0.12030075188 3.43272528768)
            (0.135338345865 3.45916607789)
            (0.15037593985 3.49559870613)
            (0.165413533835 3.54095511873)
            (0.18045112782 3.59390565366)
            (0.195488721805 3.65289802067)
            (0.210526315789 3.71620280806)
            (0.225563909774 3.78196418183)
            (0.240601503759 3.84825429103)
            (0.255639097744 3.91312978441)
            (0.270676691729 3.97468878137)
            (0.285714285714 4.03112662725)
            (0.300751879699 4.08078879831)
            (0.315789473684 4.12221940552)
            (0.330827067669 4.15420387518)
            (0.345864661654 4.17580455519)
            (0.360902255639 4.18638820315)
            (0.375939849624 4.18564455036)
            (0.390977443609 4.17359539764)
            (0.406015037594 4.1505939762)
            (0.421052631579 4.1173145924)
            (0.436090225564 4.07473285985)
            (0.451127819549 4.02409709845)
            (0.466165413534 3.96689173889)
            (0.481203007519 3.90479380522)
            (0.496240601504 3.83962375149)
            (0.511278195489 3.77329209359)
            (0.526315789474 3.70774340081)
            (0.541353383459 3.64489928917)
            (0.556390977444 3.58660208757)
            (0.571428571429 3.53456082834)
            (0.586466165414 3.49030114552)
            (0.601503759398 3.45512054959)
            (0.616541353383 3.43005038981)
            (0.631578947368 3.41582561936)
            (0.646616541353 3.41286324957)
            (0.661654135338 3.42125012483)
            (0.676691729323 3.44074037672)
            (0.691729323308 3.47076263183)
            (0.706766917293 3.51043676207)
            (0.721804511278 3.55859968637)
            (0.736842105263 3.6138394674)
            (0.751879699248 3.6745367037)
            (0.766917293233 3.73891200388)
            (0.781954887218 3.80507815093)
            (0.796992481203 3.87109542764)
            (0.812030075188 3.93502848106)
            (0.827067669173 3.99500305904)
            (0.842105263158 4.0492609555)
            (0.857142857143 4.0962115538)
            (0.872180451128 4.13447845697)
            (0.887218045113 4.16293983802)
            (0.902255639098 4.18076132719)
            (0.917293233083 4.1874204723)
            (0.932330827068 4.18272205481)
            (0.947368421053 4.16680381283)
            (0.962406015038 4.14013240327)
            (0.977443609023 4.1034897213)
            (0.992481203008 4.0579499785)
            (1.00751879699 4.00484821139)
            (1.02255639098 3.9457411437)
            (1.03759398496 3.8823615497)
            (1.05263157895 3.8165674564)
            (1.06766917293 3.75028767394)
            (1.08270676692 3.68546525086)
            (1.0977443609 3.62400051193)
            (1.11278195489 3.56769534858)
            (1.12781954887 3.51820039483)
            (1.14285714286 3.4769666376)
            (1.15789473684 3.44520287976)
            (1.17293233083 3.42384030305)
            (1.18796992481 3.41350516968)
            (1.2030075188 3.41450046293)
            (1.21804511278 3.42679700493)
            (1.23308270677 3.45003431202)
            (1.24812030075 3.48353116266)
            (1.26315789474 3.52630556803)
            (1.27819548872 3.57710355984)
            (1.29323308271 3.63443595148)
            (1.30827067669 3.69662199486)
            (1.32330827068 3.7618386529)
            (1.33834586466 3.82817404349)
            (1.35338345865 3.89368348788)
            (1.36842105263 3.95644652067)
            (1.38345864662 4.01462318987)
            (1.3984962406 4.06650799663)
            (1.41353383459 4.11057989346)
            (1.42857142857 4.14554687499)
            (1.44360902256 4.17038385425)
            (1.45864661654 4.18436271394)
            (1.47368421053 4.18707365182)
            (1.48872180451 4.17843719444)
            (1.5037593985 4.15870652694)
            (1.51879699248 4.1284600707)
            (1.53383458647 4.08858452647)
            (1.54887218045 4.04024887995)
            (1.56390977444 3.98487013197)
            (1.57894736842 3.92407175791)
            (1.59398496241 3.85963611411)
            (1.60902255639 3.7934521866)
            (1.62406015038 3.72746021385)
            (1.63909774436 3.66359480699)
            (1.65413533835 3.60372823506)
            (1.66917293233 3.54961553785)
            (1.68421052632 3.50284307536)
            (1.6992481203 3.46478202235)
            (1.71428571429 3.43654817115)
            (1.72932330827 3.41896922126)
            (1.74436090226 3.41256051465)
            (1.75939849624 3.41750992803)
            (1.77443609023 3.4336723651)
            (1.78947368421 3.46057401021)
            (1.8045112782 3.4974262186)
            (1.81954887218 3.54314863627)
            (1.83458646617 3.59640087141)
            (1.84962406015 3.6556217892)
            (1.86466165414 3.71907527776)
            (1.87969924812 3.78490114379)
            (1.89473684211 3.8511696457)
            (1.90977443609 3.91593806567)
            (1.92481203008 3.97730766206)
            (1.93984962406 4.03347933264)
            (1.95488721805 4.08280635683)
            (1.96992481203 4.12384267071)
            (1.98496240602 4.15538525963)
            (2.0 4.17650942562)
            (2.01503759398 4.18659589567)
            (2.03007518797 4.18534897628)
            (2.04511278195 4.17280522197)
            (2.06015037594 4.14933236362)
            (2.07518796992 4.11561852816)
            (2.09022556391 4.07265206552)
            (2.10526315789 4.02169257431)
            (2.12030075188 3.96423397561)
            (2.13533834586 3.90196071741)
            (2.15037593985 3.83669839354)
            (2.16541353383 3.77036022487)
            (2.18045112782 3.70489097157)
            (2.1954887218 3.6422099208)
            (2.21052631579 3.58415462121)
            (2.22556390977 3.53242701356)
            (2.24060150376 3.48854353693)
            (2.25563909774 3.45379067298)
            (2.27067669173 3.42918723166)
            (2.28571428571 3.41545448389)
            (2.3007518797 3.41299501692)
            (2.31578947368 3.42188093214)
            (2.33082706767 3.44185173133)
            (2.34586466165 3.47232195344)
            (2.36090225564 3.51239833782)
            (2.37593984962 3.56090601099)
            (2.39097744361 3.61642292901)
            (2.40601503759 3.67732156592)
            (2.42105263158 3.74181662609)
            (2.43609022556 3.80801738164)
            (2.45112781955 3.87398310078)
            (2.46616541353 3.93777994204)
            (2.48120300752 3.99753764641)
            (2.4962406015 4.05150436567)
            (2.51127819549 4.09809801928)
            (2.52631578947 4.13595267442)
            (2.54135338346 4.16395858948)
            (2.55639097744 4.1812947471)
            (2.57142857143 4.18745292299)
            (2.58646616541 4.18225258496)
            (2.6015037594 4.16584618537)
            (2.61654135338 4.13871469184)
            (2.63157894737 4.10165348734)
            (2.64661654135 4.05574905278)
            (2.66165413534 4.00234711592)
            (2.67669172932 3.94301320025)
            (2.69172932331 3.87948673025)
            (2.70676691729 3.81363003875)
            (2.72180451128 3.747373771)
            (2.73684210526 3.68266028619)
            (2.75187969925 3.62138671547)
            (2.76691729323 3.565349346)
            (2.78195488722 3.51619096121)
            (2.7969924812 3.47535268121)
            (2.81203007519 3.4440317151)
            (2.82706766917 3.42314626383)
            (2.84210526316 3.41330860224)
            (2.85714285714 3.41480712982)
            (2.87218045113 3.42759791594)
            (2.88721804511 3.45130598776)
            (2.9022556391 3.48523632288)
            (2.91729323308 3.52839422449)
            (2.93233082707 3.57951448178)
            (2.94736842105 3.63709846068)
            (2.96240601504 3.69945803757)
            (2.97744360902 3.76476508811)
            (2.99248120301 3.83110508024)
            (3.00751879699 3.89653320033)
            (3.02255639098 3.95913136706)
            (3.03759398496 4.01706446162)
            (3.05263157895 4.06863412578)
            (3.06766917293 4.11232855071)
            (3.08270676692 4.14686679696)
            (3.0977443609 4.1712363463)
            (3.11278195489 4.18472278453)
            (3.12781954887 4.18693074518)
            (3.14285714286 4.1777955)
            (3.15789473684 4.15758485651)
            (3.17293233083 4.12689130702)
            (3.18796992481 4.08661465919)
            (3.2030075188 4.03793565741)
            (3.21804511278 3.98228136827)
            (3.23308270677 3.92128334486)
            (3.24812030075 3.85672979644)
            (3.26315789474 3.7905131655)
            (3.27819548872 3.72457464923)
            (3.29323308271 3.66084729164)
            (3.30827067669 3.60119931476)
            (3.32330827068 3.54737935005)
            (3.33834586466 3.50096517582)
            (3.35338345865 3.4633174633)
            (3.36842105263 3.4355398874)
            (3.38345864662 3.41844677151)
            (3.3984962406 3.41253921496)
            (3.41353383459 3.41799040281)
            (3.42857142857 3.43464052883)
            (3.44360902256 3.46200148034)
            (3.45864661654 3.49927114762)
            (3.47368421053 3.5453569385)
            (3.48872180451 3.5989078086)
            (3.5037593985 3.65835386832)
            (3.51879699248 3.72195240559)
            (3.53383458647 3.78783897485)
            (3.54887218045 3.85408205498)
            (3.56390977444 3.91873967339)
            (3.57894736842 3.97991633669)
            (3.59398496241 4.03581859865)
            (3.60902255639 4.08480763664)
            (3.62406015038 4.12544729508)
            (3.63909774436 4.15654618764)
            (3.65413533835 4.17719262366)
            (3.66917293233 4.18678133521)
            (3.68421052632 4.18503122101)
            (3.6992481203 4.17199358715)
            (3.71428571429 4.14805064301)
            (3.72932330827 4.11390429651)
            (3.74436090226 4.07055557699)
            (3.75939849624 4.01927528925)
            (3.77443609023 3.96156675881)
            (3.78947368421 3.89912176061)
            (3.8045112782 3.83377092319)
            (3.81954887218 3.76743006226)
            (3.83458646617 3.70204401692)
            (3.84962406015 3.63952963504)
            (3.86466165414 3.58171957919)
            (3.87969924812 3.53030860063)
            (3.89473684211 3.48680385618)
            (3.90977443609 3.45248072464)
            (3.92481203008 3.42834541798)
            (3.93984962406 3.41510548336)
            (3.95488721805 3.4131490608)
            (3.96992481203 3.42253350449)
            (3.98496240602 3.44298370143)
            (4.0 3.47390013662)
            (4.01503759398 3.5143764683)
            (4.03007518797 3.56322609818)
            (4.04511278195 3.61901695756)
            (4.06015037594 3.68011348967)
            (4.07518796992 3.7447245974)
            (4.09022556391 3.81095615085)
            (4.10526315789 3.87686651536)
            (4.12030075188 3.94052347222)
            (4.13533834586 4.00006086326)
            (4.15037593985 4.05373329892)
            (4.16541353383 4.09996732585)
            (4.18045112782 4.13740755399)
            (4.1954887218 4.16495639101)
            (4.21052631579 4.18180621918)
            (4.22556390977 4.18746307139)
            (4.24060150376 4.18176111216)
            (4.25563909774 4.16486749931)
            (4.27067669173 4.13727748356)
            (4.28571428571 4.09979988981)
            (4.3007518797 4.0535334058)
            (4.31578947368 3.99983437309)
            (4.33082706767 3.94027702476)
            (4.34586466165 3.87660733544)
            (4.36090225564 3.81069183654)
            (4.37593984962 3.7444628973)
            (4.39097744361 3.67986207574)
            (4.40601503759 3.61878320022)
            (4.42105263158 3.56301685022)
            (4.43609022556 3.51419786401)
            (4.45112781955 3.47375741194)
            (4.46616541353 3.44288104045)
            (4.48120300752 3.42247391679)
            (4.4962406015 3.41313429326)
            (4.51127819549 3.41513596891)
            (4.52631578947 3.4284202629)
            (4.54135338346 3.45259773479)
            (4.55639097744 3.48695960131)
            (4.57142857143 3.53049851493)
            (4.58646616541 3.58193809517)
            (4.6015037594 3.63977034671)
            (4.61654135338 3.70229986761)
            (4.63157894737 3.76769355149)
            (4.64661654135 3.83403432655)
            (4.66165413534 3.8993773562)
            (4.67669172932 3.96180705364)
            (4.69172932331 4.01949323886)
            (4.70676691729 4.070744792)
            (4.72180451128 4.11405922992)
            (4.73684210526 4.14816675283)
            (4.75187969925 4.17206746949)
            (4.76691729323 4.18506070997)
            (4.78195488722 4.1867655663)
            (4.7969924812 4.17713205915)
            (4.81203007519 4.15644260302)
            (4.82706766917 4.12530372704)
            (4.84210526316 4.08462829398)
            (4.85714285714 4.03560873897)
            (4.87218045113 3.9796821122)
            (4.88721804511 3.91848795059)
            (4.9022556391 3.85382021333)
            (4.91729323308 3.78757469047)
            (4.93233082707 3.72169342618)
            (4.94736842105 3.65810778611)
            (4.96240601504 3.59868183768)
            (4.97744360902 3.54515770342)
            (4.99248120301 3.49910448912)
            (5.00751879699 3.46187228415)
            (5.02255639098 3.43455258245)
            (5.03759398496 3.41794628446)
            (5.05263157895 3.41254021801)
            (5.06766917293 3.41849286656)
            (5.08270676692 3.43562972313)
            (5.0977443609 3.4634484061)
            (5.11278195489 3.50113338699)
            (5.12781954887 3.54757989833)
            (5.14285714286 3.60142632091)
            (5.15789473684 3.66109410079)
            (5.17293233083 3.72483402594)
            (5.18796992481 3.79077750593)
            (5.2030075188 3.85699135122)
            (5.21804511278 3.9215344463)
            (5.23308270677 3.9825146551)
            (5.24812030075 4.03814429063)
            (5.26315789474 4.08679252254)
            (5.27819548872 4.12703318629)
            (5.29323308271 4.15768659238)
            (5.30827067669 4.17785411)
            (5.32330827068 4.18694451111)
            (5.33834586466 4.18469130283)
            (5.35338345865 4.17116053988)
            (5.36842105263 4.14674888815)
            (5.38345864662 4.11217199611)
            (5.3984962406 4.06844351492)
            (5.41353383459 4.01684538242)
            (5.42857142857 3.95889024201)
            (5.44360902256 3.89627709822)
            (5.45864661654 3.83084150893)
            (5.47368421053 3.76450177441)
            (5.48872180451 3.69920270075)
            (5.5037593985 3.63685858615)
            (5.51879699248 3.57929710168)
            (5.53383458647 3.52820571149)
            (5.54887218045 3.48508220341)
            (5.56390977444 3.45119077996)
            (5.57894736842 3.42752499722)
            (5.59398496241 3.41477863787)
            (5.60902255639 3.41332537232)
            (5.62406015038 3.4232078043)
            (5.63909774436 3.44413622186)
            (5.65413533835 3.47549709054)
            (5.66917293233 3.51637103964)
            (5.68421052632 3.56555981438)
            (5.6992481203 3.62162140373)
            (5.71428571429 3.68291231424)
            (5.72932330827 3.74763575044)
            (5.74436090226 3.81389428941)
            (5.75939849624 3.87974550541)
            (5.77443609023 3.94325891368)
            (5.78947368421 4.00257256433)
            (5.8045112782 4.05594762695)
            (5.81954887218 4.10181936591)
            (5.83458646617 4.13884301193)
            (5.84962406015 4.16593318516)
            (5.86466165414 4.18229571399)
            (5.87969924812 4.1874509169)
            (5.89473684211 4.18124766468)
            (5.90977443609 4.163867811)
            (5.92481203008 4.13582086113)
            (5.93984962406 4.09792903541)
            (5.95488721805 4.05130316511)
            (5.96992481203 3.99731012753)
            (5.98496240602 3.93753277475)
            (6.0 3.87372353101)
            );
        }
    }