/*--------------------------------*- C++ -*----------------------------------*\
| =========                 |                                                 |
| \\      /  F ield         | OpenFOAM: The Open Source CFD Toolbox           |
|  \\    /   O peration     | Version:  2.2.x                                 |
|   \\  /    A nd           | Web:      www.OpenFOAM.org                      |
|    \\/     M anipulation  |                                                 |
\*---------------------------------------------------------------------------*/
FoamFile
{
    version     2.0;
    format      ascii;
    class       dictionary;
    object      dynamicMeshDict;
}


dynamicFvMesh   solidBodyMotionFvMesh;

motionSolverLibs ( "libfvMotionSolvers.so" );

solidBodyMotionFvMeshCoeffs
{
    cellZone        AMIsurface;

    solidBodyMotionFunction  rotatingMotion;
    rotatingMotionCoeffs
    {
	origin		(0 0 0);
	axis		(0 0 1);
        omega		table
	(
            (0.0 3.60626845303)
            (0.0125313283208 3.56046870154)
            (0.0250626566416 3.51954903595)
            (0.0375939849624 3.48434313223)
            (0.0501253132832 3.4555682571)
            (0.062656641604 3.43381065489)
            (0.0751879699248 3.41951360365)
            (0.0877192982456 3.41296838406)
            (0.100250626566 3.41430834501)
            (0.112781954887 3.42350618683)
            (0.125313283208 3.44037451749)
            (0.137844611529 3.46456967041)
            (0.15037593985 3.49559870613)
            (0.16290726817 3.53282945526)
            (0.175438596491 3.5755033979)
            (0.187969924812 3.62275111737)
            (0.200501253133 3.67361001324)
            (0.213032581454 3.72704391288)
            (0.225563909774 3.78196418183)
            (0.238095238095 3.83725190314)
            (0.250626566416 3.89178067358)
            (0.263157894737 3.94443955239)
            (0.275689223058 3.99415569499)
            (0.288220551378 4.0399162106)
            (0.300751879699 4.08078879831)
            (0.31328320802 4.1159407413)
            (0.325814536341 4.1446558722)
            (0.338345864662 4.16634916388)
            (0.350877192982 4.18057864853)
            (0.363408521303 4.18705442204)
            (0.375939849624 4.18564455036)
            (0.388471177945 4.1763777575)
            (0.401002506266 4.15944284026)
            (0.413533834586 4.13518482182)
            (0.426065162907 4.10409792242)
            (0.438596491228 4.06681549034)
            (0.451127819549 4.02409709845)
            (0.46365914787 3.97681306901)
            (0.47619047619 3.9259267422)
            (0.488721804511 3.87247484954)
            (0.501253132832 3.81754639204)
            (0.513784461153 3.7622604535)
            (0.526315789474 3.70774340081)
            (0.538847117794 3.65510593603)
            (0.551378446115 3.60542046742)
            (0.563909774436 3.55969926086)
            (0.576441102757 3.51887381639)
            (0.588972431078 3.48377589034)
            (0.601503759398 3.45512054959)
            (0.614035087719 3.43349160311)
            (0.62656641604 3.4193297078)
            (0.639097744361 3.41292339074)
            (0.651629072682 3.41440317088)
            (0.664160401003 3.42373889997)
            (0.676691729323 3.44074037672)
            (0.689223057644 3.4650612219)
            (0.701754385965 3.49620593527)
            (0.714285714286 3.53353999067)
            (0.726817042607 3.57630276351)
            (0.739348370927 3.62362302732)
            (0.751879699248 3.6745367037)
            (0.764411027569 3.72800650393)
            (0.77694235589 3.78294306214)
            (0.789473684211 3.83822712952)
            (0.802005012531 3.89273237728)
            (0.814536340852 3.94534834388)
            (0.827067669173 3.99500305904)
            (0.839598997494 4.04068488345)
            (0.852130325815 4.08146311941)
            (0.864661654135 4.11650697239)
            (0.877192982456 4.14510247718)
            (0.889724310777 4.16666704387)
            (0.902255639098 4.18076132719)
            (0.914786967419 4.18709817758)
            (0.927318295739 4.18554849132)
            (0.93984962406 4.17614384094)
            (0.952380952381 4.15907583187)
            (0.964912280702 4.13469219885)
            (0.977443609023 4.1034897213)
            (0.989974937343 4.06610410226)
            (1.00250626566 4.02329701684)
            (1.01503759398 3.97594059433)
            (1.02756892231 3.92499964979)
            (1.04010025063 3.87151202749)
            (1.05263157895 3.8165674564)
            (1.06516290727 3.76128534858)
            (1.07769423559 3.70679199291)
            (1.09022556391 3.65419760861)
            (1.10275689223 3.6045737263)
            (1.11528822055 3.55893135708)
            (1.12781954887 3.51820039483)
            (1.14035087719 3.48321067095)
            (1.15288220551 3.45467504784)
            (1.16541353383 3.43317489543)
            (1.17794486216 3.41914824662)
            (1.19047619048 3.41288087305)
            (1.2030075188 3.41450046293)
            (1.21553884712 3.42397401958)
            (1.22807017544 3.44110853367)
            (1.24060150376 3.46555491556)
            (1.25313283208 3.49681510739)
            (1.2656641604 3.5342522303)
            (1.27819548872 3.57710355984)
            (1.29072681704 3.62449606534)
            (1.30325814536 3.67546419659)
            (1.31578947368 3.72896955543)
            (1.32832080201 3.78392205155)
            (1.34085213033 3.83920211141)
            (1.35338345865 3.89368348788)
            (1.36591478697 3.94625620576)
            (1.37844611529 3.99584917589)
            (1.39097744361 4.04145201693)
            (1.40350877193 4.08213564035)
            (1.41604010025 4.11707117919)
            (1.42857142857 4.14554687499)
            (1.44110275689 4.16698257875)
            (1.45363408521 4.18094157061)
            (1.46616541353 4.18713945734)
            (1.47869674185 4.18544996642)
            (1.49122807018 4.17590751867)
            (1.5037593985 4.15870652694)
            (1.51629072682 4.13419743527)
            (1.52882205514 4.10287957914)
            (1.54135338346 4.06539101224)
            (1.55388471178 4.02249550709)
            (1.5664160401 3.97506699437)
            (1.57894736842 3.92407175791)
            (1.59147869674 3.87054874807)
            (1.60401002506 3.8155884148)
            (1.61654135338 3.76031049127)
            (1.6290726817 3.70584118113)
            (1.64160401003 3.65329021371)
            (1.65413533835 3.60372823506)
            (1.66666666667 3.55816499511)
            (1.67919799499 3.51752877559)
            (1.69172932331 3.48264747765)
            (1.70426065163 3.45423175469)
            (1.71679197995 3.43286053386)
            (1.72932330827 3.41896922126)
            (1.74185463659 3.41284083128)
            (1.75438596491 3.41460022053)
            (1.76691729323 3.42421154414)
            (1.77944862155 3.441478986)
            (1.79197994987 3.46605074825)
            (1.8045112782 3.4974262186)
            (1.81704260652 3.53496616957)
            (1.82957393484 3.57790578174)
            (1.84210526316 3.62537022583)
            (1.85463659148 3.67639248598)
            (1.8671679198 3.72993306122)
            (1.87969924812 3.78490114379)
            (1.89223057644 3.84017684258)
            (1.90476190476 3.89463399931)
            (1.91729323308 3.94716313223)
            (1.9298245614 3.99669404015)
            (1.94235588972 4.04221760616)
            (1.95488721805 4.08280635683)
            (1.96741854637 4.11763335809)
            (1.97994987469 4.14598906277)
            (1.99248120301 4.16729576651)
            (2.00501253133 4.18111937762)
            (2.01754385965 4.18717826106)
            (2.03007518797 4.18534897628)
            (2.04260651629 4.17566879219)
            (2.05513784461 4.15833492781)
            (2.06766917293 4.13370053426)
            (2.08020050125 4.10226749985)
            (2.09273182957 4.06467622485)
            (2.10526315789 4.02169257431)
            (2.11779448622 3.97419227474)
            (2.13032581454 3.9231430725)
            (2.14285714286 3.86958501745)
            (2.15538847118 3.81460927349)
            (2.1679197995 3.75933588781)
            (2.18045112782 3.70489097157)
            (2.19298245614 3.65238375713)
            (2.20551378446 3.60288399913)
            (2.21804511278 3.55740017986)
            (2.2305764411 3.51685896295)
            (2.24310776942 3.48208631405)
            (2.25563909774 3.45379067298)
            (2.26817042607 3.43254852041)
            (2.28070175439 3.41879263288)
            (2.29323308271 3.41280326567)
            (2.30576441103 3.41470244305)
            (2.31829573935 3.42445147215)
            (2.33082706767 3.44185173133)
            (2.34335839599 3.46654871679)
            (2.35588972431 3.498039265)
            (2.36842105263 3.53568180393)
            (2.38095238095 3.57870942411)
            (2.39348370927 3.62624550321)
            (2.40601503759 3.67732156592)
            (2.41854636591 3.73089701515)
            (2.43107769424 3.78588033259)
            (2.44360902256 3.84115131678)
            (2.45614035088 3.89558390548)
            (2.4686716792 3.94806911748)
            (2.48120300752 3.99753764641)
            (2.49373433584 4.04298164623)
            (2.50626566416 4.08347526455)
            (2.51879699248 4.11819350549)
            (2.5313283208 4.1464290377)
            (2.54385964912 4.16760660515)
            (2.55639097744 4.1812947471)
            (2.56892230576 4.18721458849)
            (2.58145363409 4.18524552156)
            (2.59398496241 4.17542766304)
            (2.60651629073 4.15796103687)
            (2.61904761905 4.13320149899)
            (2.63157894737 4.10165348734)
            (2.64411027569 4.06395974467)
            (2.65664160401 4.02088822365)
            (2.66917293233 3.97331644102)
            (2.68170426065 3.9222135995)
            (2.69423558897 3.86862084177)
            (2.70676691729 3.81363003875)
            (2.71929824561 3.75836154442)
            (2.73182957393 3.7039413703)
            (2.74436090226 3.65147824466)
            (2.75689223058 3.6020410239)
            (2.7694235589 3.5566369162)
            (2.78195488722 3.51619096121)
            (2.79448621554 3.48152718374)
            (2.80701754386 3.45335180554)
            (2.81954887218 3.43223885708)
            (2.8320802005 3.41861848259)
            (2.84461152882 3.41276817647)
            (2.85714285714 3.41480712982)
            (2.86967418546 3.42469380206)
            (2.88220551378 3.44222676728)
            (2.89473684211 3.46704881799)
            (2.90726817043 3.49865424265)
            (2.91979949875 3.53639912879)
            (2.93233082707 3.57951448178)
            (2.94486215539 3.62712189187)
            (2.95739348371 3.67825143048)
            (2.96992481203 3.73186141103)
            (2.98245614035 3.7868596117)
            (2.99498746867 3.8421255278)
            (3.00751879699 3.89653320033)
            (3.02005012531 3.94897415572)
            (3.03258145363 3.99837998927)
            (3.04511278195 4.04374413225)
            (3.05764411028 4.08414235924)
            (3.0701754386 4.11875161781)
            (3.08270676692 4.14686679696)
            (3.09523809524 4.16791509267)
            (3.10776942356 4.18146767792)
            (3.12030075188 4.18724843941)
            (3.1328320802 4.18513960291)
            (3.14536340852 4.17518413275)
            (3.15789473684 4.15758485651)
            (3.17042606516 4.13270033266)
            (3.18295739348 4.10103754554)
            (3.1954887218 4.06324157627)
            (3.20802005013 4.02008246024)
            (3.22055137845 3.97243949882)
            (3.23308270677 3.92128334486)
            (3.24561403509 3.86765622721)
            (3.25814536341 3.81265071684)
            (3.27067669173 3.75738746734)
            (3.28320802005 3.70299238339)
            (3.29573934837 3.65057368209)
            (3.30827067669 3.60119931476)
            (3.32080200501 3.55587520903)
            (3.33333333333 3.51552477463)
            (3.34586466165 3.4809700903)
            (3.35839598997 3.45291515516)
            (3.3709273183 3.43193154585)
            (3.38345864662 3.41844677151)
            (3.39598997494 3.4127355639)
            (3.40852130326 3.41491428018)
            (3.42105263158 3.42493853233)
            (3.4335839599 3.44260409146)
            (3.44611528822 3.46755104866)
            (3.45864661654 3.49927114762)
            (3.47117794486 3.53711813958)
            (3.48370927318 3.58032094963)
            (3.4962406015 3.62799938622)
            (3.50877192982 3.67918207372)
            (3.52130325815 3.73282624272)
            (3.53383458647 3.78783897485)
            (3.54636591479 3.84309946939)
            (3.55889724311 3.89748187778)
            (3.57142857143 3.94987824117)
            (3.58395989975 3.99922106334)
            (3.59649122807 4.04450505935)
            (3.60902255639 4.08480763664)
            (3.62155388471 4.11930769149)
            (3.63408521303 4.14730233776)
            (3.64661654135 4.16822122711)
            (3.65914786967 4.18163816898)
            (3.67167919799 4.18727981359)
            (3.68421052632 4.18503122101)
            (3.69674185464 4.17493820289)
            (3.70927318296 4.15720638913)
            (3.72180451128 4.13219703846)
            (3.7343358396 4.10041967837)
            (3.74686716792 4.06252172425)
            (3.75939849624 4.01927528925)
            (3.77192982456 3.97156145373)
            (3.78446115288 3.92035231452)
            (3.7969924812 3.86669117995)
            (3.80952380952 3.81167131401)
            (3.82205513784 3.7564136628)
            (3.83458646617 3.70204401692)
            (3.84711779449 3.64967007522)
            (3.85964912281 3.60035887709)
            (3.87218045113 3.55511506322)
            (3.88471177945 3.51486040748)
            (3.89724310777 3.48041503728)
            (3.90977443609 3.45248072464)
            (3.92230576441 3.43162658869)
            (3.93483709273 3.41827750075)
            (3.94736842105 3.41270542816)
            (3.95989974937 3.41502389344)
            (3.97243107769 3.42518566139)
            (3.98496240602 3.44298370143)
            (3.99749373434 3.46805540558)
            (4.01002506266 3.49988997598)
            (4.02255639098 3.53783883168)
            (4.0350877193 3.58112882248)
            (4.04761904762 3.62887798063)
            (4.06015037594 3.68011348967)
            (4.07268170426 3.73379150402)
            (4.08521303258 3.78881841579)
            (4.0977443609 3.84407313532)
            (4.11027568922 3.89842993176)
            (4.12280701754 3.95078136803)
            (4.13533834586 4.00006086326)
            (4.14786967419 4.04526442266)
            (4.16040100251 4.08547109248)
            (4.17293233083 4.11986172296)
            (4.18546365915 4.1477356573)
            (4.19799498747 4.1685250065)
            (4.21052631579 4.18180621918)
            (4.22305764411 4.18730871083)
            (4.23558897243 4.18492037655)
            (4.24812030075 4.17468987503)
            (4.26065162907 4.15682563716)
            (4.27318295739 4.13169161963)
            (4.28571428571 4.09979988981)
            (4.29824561404 4.06180019321)
            (4.31077694236 4.01846671584)
            (4.32330827068 3.97068231139)
            (4.335839599 3.91942051445)
            (4.34837092732 3.86572570614)
            (4.36090225564 3.81069183654)
            (4.37343358396 3.75544013703)
            (4.38596491228 3.70109627695)
            (4.3984962406 3.64876742981)
            (4.41102756892 3.59951971628)
            (4.42355889724 3.55435648362)
            (4.43609022556 3.51419786401)
            (4.44862155388 3.47986202825)
            (4.46115288221 3.45204851676)
            (4.47368421053 3.43132398755)
            (4.48621553885 3.41811067137)
            (4.49874686717 3.41267776946)
            (4.51127819549 3.41513596891)
            (4.52380952381 3.42543518766)
            (4.53634085213 3.44336559479)
            (4.54887218045 3.46856188552)
            (4.56140350877 3.50051072376)
            (4.57393483709 3.5385612005)
            (4.58646616541 3.58193809517)
            (4.59899749373 3.62975766949)
            (4.61152882206 3.68104567238)
            (4.62406015038 3.73475718878)
            (4.6365914787 3.78979792823)
            (4.64912280702 3.84504651938)
            (4.66165413534 3.8993773562)
            (4.67418546366 3.95168353054)
            (4.68671679198 4.00089938363)
            (4.6992481203 4.04602221733)
            (4.71177944862 4.08613272252)
            (4.72431077694 4.12041370867)
            (4.73684210526 4.14816675283)
            (4.74937343358 4.16882642891)
            (4.7619047619 4.18197182746)
            (4.77443609023 4.18733513095)
            (4.78696741855 4.18480707025)
            (4.79949874687 4.17443915075)
            (4.81203007519 4.15644260302)
            (4.82456140351 4.13118407938)
            (4.83709273183 4.09917818381)
            (4.84962406015 4.06107698776)
            (4.86215538847 4.01765674516)
            (4.87468671679 3.96980207741)
            (4.88721804511 3.91848795059)
            (4.89974937343 3.86475981197)
            (4.91228070175 3.80971229068)
            (4.92481203008 3.75446689624)
            (4.9373433584 3.70014916954)
            (4.94987468672 3.64786575165)
            (4.96240601504 3.59868183768)
            (4.97493734336 3.55359947509)
            (4.98746867168 3.51353714845)
            (5.0 3.47931106673)
            );
        }
    }