/*--------------------------------*- C++ -*----------------------------------*\
| =========                 |                                                 |
| \\      /  F ield         | OpenFOAM: The Open Source CFD Toolbox           |
|  \\    /   O peration     | Version:  2.3.0                                 |
|   \\  /    A nd           | Web:      www.OpenFOAM.org                      |
|    \\/     M anipulation  |                                                 |
\*---------------------------------------------------------------------------*/
FoamFile
{
    version     2.0;
    format      ascii;
    class       volScalarField;
    location    "0";
    object      nuTilda;
}
// * * * * * * * * * * * * * * * * * * * * * * * * * * * * * * * * * * * * * //

dimensions      [0 2 -1 0 0 0 0];

internalField   uniform 0.14;

boundaryField
{

    //- Set patchGroups for constraint patches
    #include "${WM_PROJECT_DIR}/etc/caseDicts/setConstraintTypes"

    turbine
    {
        type            fixedValue;
        value           uniform 0;
    }

    inlet
    {
        type            fixedValue;
        value           $internalField;
    }

    outlet
    {
        type            inletOutlet;
        inletValue      $internalField;
        value           $internalField;
    }

    top
    {
        type            fixedValue;
        value           uniform 0;
    }

    bottom
    {
        type            fixedValue;
        value           uniform 0;
    }

    walls
    {
        type            fixedValue;
        value           uniform 0;
    }

    AMI1
    {
        type  		cyclicAMI;
        value   	$internalField;
    }

    AMI2
    {
        type  		cyclicAMI;
        value   	$internalField;
    }

    "proc.*"
    {
        type            processor;
    }

}


// ************************************************************************* //
